nr_report/nr_report.txt
#########################################################################################
-----------------------------------------------------------------------------------------
                              Newton Raphson Loadflow Analysis 
-----------------------------------------------------------------------------------------
| Bus |    V   |  Angle  |     Injection      |     Generation     |          Load      |
| No  |   pu   |  Degree |    MW   |   MVar   |    MW   |  Mvar    |     MW     |  MVar | 
-----------------------------------------------------------------------------------------
  1    1.0400     0.0000   103.156    -79.066   303.156    120.934   200.000    200.000
-----------------------------------------------------------------------------------------
  2    1.0819    -1.3795    50.000    100.000    50.000    100.000     0.000      0.000
-----------------------------------------------------------------------------------------
  3    1.0400    -3.7542  -150.000    -14.976     0.000     45.024   150.000     60.000
-----------------------------------------------------------------------------------------
 Total                       3.156      5.958   353.156    265.958   350.000    260.000
-----------------------------------------------------------------------------------------
#########################################################################################
-------------------------------------------------------------------------------------
                              Line Flow and Losses 
-------------------------------------------------------------------------------------
|From|To |    P    |    Q     | From| To |    P     |   Q     |      Line Loss      |
|Bus |Bus|   MW    |   MVar   | Bus | Bus|    MW    |  MVar   |     MW   |    MVar  |
-------------------------------------------------------------------------------------
   1   2    19.158    -58.804      2   1    -18.451     61.633     0.707      2.829
-------------------------------------------------------------------------------------
   1   3    83.999    -18.098      3   1    -82.633     23.559     1.365      5.461
-------------------------------------------------------------------------------------
   2   3    68.451     40.708      3   2    -67.367    -36.373     1.084      4.335
-------------------------------------------------------------------------------------
   Total Loss                                                      3.156     12.625
-------------------------------------------------------------------------------------
#####################################################################################
